Version 4
SHEET 1 5172 9988
WIRE -48 128 -48 112
WIRE 96 128 -48 128
WIRE -48 144 -48 128
WIRE 96 144 96 128
WIRE -816 272 -880 272
WIRE -672 272 -736 272
WIRE 1008 320 944 320
WIRE 1088 320 1072 320
WIRE 1264 320 1088 320
WIRE 1776 320 1712 320
WIRE 1856 320 1840 320
WIRE 2032 320 1856 320
WIRE 2352 320 2336 320
WIRE 2496 320 2432 320
WIRE 1088 368 1088 320
WIRE 1856 368 1856 320
WIRE -992 432 -1248 432
WIRE -880 432 -880 272
WIRE -880 432 -912 432
WIRE -800 432 -880 432
WIRE -672 448 -672 272
WIRE -672 448 -736 448
WIRE -624 448 -672 448
WIRE -496 448 -544 448
WIRE -800 464 -816 464
WIRE -816 480 -816 464
WIRE -496 496 -496 448
WIRE -384 496 -496 496
WIRE -224 496 -304 496
WIRE 544 496 -224 496
WIRE 784 496 544 496
WIRE 944 496 944 320
WIRE 944 496 864 496
WIRE 1008 496 944 496
WIRE 1088 496 1088 448
WIRE 1088 496 1072 496
WIRE 1152 496 1088 496
WIRE 1264 496 1264 320
WIRE 1552 496 1264 496
WIRE 1712 496 1712 320
WIRE 1712 496 1632 496
WIRE 1776 496 1712 496
WIRE 1856 496 1856 448
WIRE 1856 496 1840 496
WIRE 1920 496 1856 496
WIRE 2032 496 2032 320
WIRE 2224 496 2032 496
WIRE 2336 496 2336 320
WIRE 2336 496 2304 496
WIRE 2352 496 2336 496
WIRE 2496 496 2496 320
WIRE 2608 496 2496 496
WIRE 2784 496 2688 496
WIRE -960 512 -1248 512
WIRE -848 512 -816 480
WIRE -848 512 -880 512
WIRE 1264 512 1264 496
WIRE 1264 512 1216 512
WIRE 2032 512 2032 496
WIRE 2032 512 1984 512
WIRE 2496 512 2496 496
WIRE 2496 512 2416 512
WIRE 1152 528 1120 528
WIRE 1920 528 1888 528
WIRE 2352 528 2336 528
WIRE 2912 544 2896 544
WIRE 3056 544 2992 544
WIRE 2336 608 2336 528
WIRE -848 624 -848 592
WIRE 4032 624 4032 544
WIRE 4160 624 4032 624
WIRE -496 656 -496 496
WIRE -384 656 -496 656
WIRE 944 656 944 576
WIRE 1120 656 1120 528
WIRE 1712 656 1712 576
WIRE 1888 656 1888 528
WIRE -224 672 -224 496
WIRE -224 672 -320 672
WIRE -384 688 -416 688
WIRE -800 720 -864 720
WIRE -656 720 -720 720
WIRE -416 720 -416 688
WIRE 2784 720 2784 496
WIRE 2896 720 2896 544
WIRE 2896 720 2784 720
WIRE 2912 720 2896 720
WIRE 3056 736 3056 544
WIRE 3056 736 2976 736
WIRE 4032 736 4032 624
WIRE 4032 736 3056 736
WIRE 2912 752 2896 752
WIRE 1008 800 944 800
WIRE 1088 800 1072 800
WIRE 1264 800 1088 800
WIRE 1776 800 1712 800
WIRE 1856 800 1840 800
WIRE 2032 800 1856 800
WIRE 2352 800 2336 800
WIRE 2496 800 2432 800
WIRE 2896 832 2896 752
WIRE 1088 848 1088 800
WIRE 1856 848 1856 800
WIRE -976 880 -1232 880
WIRE -864 880 -864 720
WIRE -864 880 -896 880
WIRE -784 880 -864 880
WIRE -656 896 -656 720
WIRE -656 896 -720 896
WIRE -608 896 -656 896
WIRE -496 896 -496 656
WIRE -496 896 -528 896
WIRE -784 912 -800 912
WIRE -800 928 -800 912
WIRE -944 960 -1232 960
WIRE -832 960 -800 928
WIRE -832 960 -864 960
WIRE 544 976 544 496
WIRE 784 976 544 976
WIRE 944 976 944 800
WIRE 944 976 864 976
WIRE 1008 976 944 976
WIRE 1088 976 1088 928
WIRE 1088 976 1072 976
WIRE 1152 976 1088 976
WIRE 1264 976 1264 800
WIRE 1552 976 1264 976
WIRE 1712 976 1712 800
WIRE 1712 976 1632 976
WIRE 1776 976 1712 976
WIRE 1856 976 1856 928
WIRE 1856 976 1840 976
WIRE 1920 976 1856 976
WIRE 2032 976 2032 800
WIRE 2224 976 2032 976
WIRE 2336 976 2336 800
WIRE 2336 976 2304 976
WIRE 2352 976 2336 976
WIRE 2496 976 2496 800
WIRE 2608 976 2496 976
WIRE 2784 976 2784 720
WIRE 2784 976 2688 976
WIRE 1264 992 1264 976
WIRE 1264 992 1216 992
WIRE 2032 992 2032 976
WIRE 2032 992 1984 992
WIRE 2496 992 2496 976
WIRE 2496 992 2416 992
WIRE 1152 1008 1120 1008
WIRE 1920 1008 1888 1008
WIRE 2352 1008 2336 1008
WIRE -832 1072 -832 1040
WIRE 2336 1088 2336 1008
WIRE 944 1136 944 1056
WIRE 1120 1136 1120 1008
WIRE 1712 1136 1712 1056
WIRE 1888 1136 1888 1008
WIRE 1008 1264 944 1264
WIRE 1088 1264 1072 1264
WIRE 1264 1264 1088 1264
WIRE 1776 1264 1712 1264
WIRE 1856 1264 1840 1264
WIRE 2032 1264 1856 1264
WIRE 2352 1264 2336 1264
WIRE 2496 1264 2432 1264
WIRE 1088 1312 1088 1264
WIRE 1856 1312 1856 1264
WIRE 544 1440 544 976
WIRE 784 1440 544 1440
WIRE 944 1440 944 1264
WIRE 944 1440 864 1440
WIRE 1008 1440 944 1440
WIRE 1088 1440 1088 1392
WIRE 1088 1440 1072 1440
WIRE 1152 1440 1088 1440
WIRE 1264 1440 1264 1264
WIRE 1552 1440 1264 1440
WIRE 1712 1440 1712 1264
WIRE 1712 1440 1632 1440
WIRE 1776 1440 1712 1440
WIRE 1856 1440 1856 1392
WIRE 1856 1440 1840 1440
WIRE 1920 1440 1856 1440
WIRE 2032 1440 2032 1264
WIRE 2224 1440 2032 1440
WIRE 2336 1440 2336 1264
WIRE 2336 1440 2304 1440
WIRE 2352 1440 2336 1440
WIRE 2496 1440 2496 1264
WIRE 2608 1440 2496 1440
WIRE 2784 1440 2784 976
WIRE 2784 1440 2688 1440
WIRE 1264 1456 1264 1440
WIRE 1264 1456 1216 1456
WIRE 2032 1456 2032 1440
WIRE 2032 1456 1984 1456
WIRE 2496 1456 2496 1440
WIRE 2496 1456 2416 1456
WIRE 1152 1472 1120 1472
WIRE 1920 1472 1888 1472
WIRE 2352 1472 2336 1472
WIRE 2336 1552 2336 1472
WIRE 944 1600 944 1520
WIRE 1120 1600 1120 1472
WIRE 1712 1600 1712 1520
WIRE 1888 1600 1888 1472
WIRE 1008 1712 944 1712
WIRE 1088 1712 1072 1712
WIRE 1264 1712 1088 1712
WIRE 1776 1712 1712 1712
WIRE 1856 1712 1840 1712
WIRE 2032 1712 1856 1712
WIRE 2352 1712 2336 1712
WIRE 2496 1712 2432 1712
WIRE 1088 1760 1088 1712
WIRE 1856 1760 1856 1712
WIRE 544 1888 544 1440
WIRE 784 1888 544 1888
WIRE 944 1888 944 1712
WIRE 944 1888 864 1888
WIRE 1008 1888 944 1888
WIRE 1088 1888 1088 1840
WIRE 1088 1888 1072 1888
WIRE 1152 1888 1088 1888
WIRE 1264 1888 1264 1712
WIRE 1552 1888 1264 1888
WIRE 1712 1888 1712 1712
WIRE 1712 1888 1632 1888
WIRE 1776 1888 1712 1888
WIRE 1856 1888 1856 1840
WIRE 1856 1888 1840 1888
WIRE 1920 1888 1856 1888
WIRE 2032 1888 2032 1712
WIRE 2224 1888 2032 1888
WIRE 2336 1888 2336 1712
WIRE 2336 1888 2304 1888
WIRE 2352 1888 2336 1888
WIRE 2496 1888 2496 1712
WIRE 2608 1888 2496 1888
WIRE 2784 1888 2784 1440
WIRE 2784 1888 2688 1888
WIRE 1264 1904 1264 1888
WIRE 1264 1904 1216 1904
WIRE 2032 1904 2032 1888
WIRE 2032 1904 1984 1904
WIRE 2496 1904 2496 1888
WIRE 2496 1904 2416 1904
WIRE 1152 1920 1120 1920
WIRE 1920 1920 1888 1920
WIRE 2352 1920 2336 1920
WIRE 2336 2000 2336 1920
WIRE 944 2048 944 1968
WIRE 1120 2048 1120 1920
WIRE 1712 2048 1712 1968
WIRE 1888 2048 1888 1920
WIRE 1008 2112 944 2112
WIRE 1088 2112 1072 2112
WIRE 1264 2112 1088 2112
WIRE 1776 2112 1712 2112
WIRE 1856 2112 1840 2112
WIRE 2032 2112 1856 2112
WIRE 2352 2112 2336 2112
WIRE 2496 2112 2432 2112
WIRE 1088 2160 1088 2112
WIRE 1856 2160 1856 2112
WIRE 544 2288 544 1888
WIRE 784 2288 544 2288
WIRE 944 2288 944 2112
WIRE 944 2288 864 2288
WIRE 1008 2288 944 2288
WIRE 1088 2288 1088 2240
WIRE 1088 2288 1072 2288
WIRE 1152 2288 1088 2288
WIRE 1264 2288 1264 2112
WIRE 1552 2288 1264 2288
WIRE 1712 2288 1712 2112
WIRE 1712 2288 1632 2288
WIRE 1776 2288 1712 2288
WIRE 1856 2288 1856 2240
WIRE 1856 2288 1840 2288
WIRE 1920 2288 1856 2288
WIRE 2032 2288 2032 2112
WIRE 2224 2288 2032 2288
WIRE 2336 2288 2336 2112
WIRE 2336 2288 2304 2288
WIRE 2352 2288 2336 2288
WIRE 2496 2288 2496 2112
WIRE 2608 2288 2496 2288
WIRE 2784 2288 2784 1888
WIRE 2784 2288 2688 2288
WIRE 1264 2304 1264 2288
WIRE 1264 2304 1216 2304
WIRE 2032 2304 2032 2288
WIRE 2032 2304 1984 2304
WIRE 2496 2304 2496 2288
WIRE 2496 2304 2416 2304
WIRE 1152 2320 1120 2320
WIRE 1920 2320 1888 2320
WIRE 2352 2320 2336 2320
WIRE 2336 2400 2336 2320
WIRE 944 2448 944 2368
WIRE 1120 2448 1120 2320
WIRE 1712 2448 1712 2368
WIRE 1888 2448 1888 2320
WIRE 1008 2624 944 2624
WIRE 1088 2624 1072 2624
WIRE 1264 2624 1088 2624
WIRE 1776 2624 1712 2624
WIRE 1856 2624 1840 2624
WIRE 2032 2624 1856 2624
WIRE 2352 2624 2336 2624
WIRE 2496 2624 2432 2624
WIRE 1088 2672 1088 2624
WIRE 1856 2672 1856 2624
WIRE 544 2800 544 2288
WIRE 784 2800 544 2800
WIRE 944 2800 944 2624
WIRE 944 2800 864 2800
WIRE 1008 2800 944 2800
WIRE 1088 2800 1088 2752
WIRE 1088 2800 1072 2800
WIRE 1152 2800 1088 2800
WIRE 1264 2800 1264 2624
WIRE 1552 2800 1264 2800
WIRE 1712 2800 1712 2624
WIRE 1712 2800 1632 2800
WIRE 1776 2800 1712 2800
WIRE 1856 2800 1856 2752
WIRE 1856 2800 1840 2800
WIRE 1920 2800 1856 2800
WIRE 2032 2800 2032 2624
WIRE 2224 2800 2032 2800
WIRE 2336 2800 2336 2624
WIRE 2336 2800 2304 2800
WIRE 2352 2800 2336 2800
WIRE 2496 2800 2496 2624
WIRE 2608 2800 2496 2800
WIRE 2784 2800 2784 2288
WIRE 2784 2800 2688 2800
WIRE 1264 2816 1264 2800
WIRE 1264 2816 1216 2816
WIRE 2032 2816 2032 2800
WIRE 2032 2816 1984 2816
WIRE 2496 2816 2496 2800
WIRE 2496 2816 2416 2816
WIRE 1152 2832 1120 2832
WIRE 1920 2832 1888 2832
WIRE 2352 2832 2336 2832
WIRE 2336 2912 2336 2832
WIRE 944 2960 944 2880
WIRE 1120 2960 1120 2832
WIRE 1712 2960 1712 2880
WIRE 1888 2960 1888 2832
WIRE 1008 3120 944 3120
WIRE 1088 3120 1072 3120
WIRE 1264 3120 1088 3120
WIRE 1776 3120 1712 3120
WIRE 1856 3120 1840 3120
WIRE 2032 3120 1856 3120
WIRE 2352 3120 2336 3120
WIRE 2496 3120 2432 3120
WIRE 1088 3168 1088 3120
WIRE 1856 3168 1856 3120
WIRE 544 3296 544 2800
WIRE 784 3296 544 3296
WIRE 944 3296 944 3120
WIRE 944 3296 864 3296
WIRE 1008 3296 944 3296
WIRE 1088 3296 1088 3248
WIRE 1088 3296 1072 3296
WIRE 1152 3296 1088 3296
WIRE 1264 3296 1264 3120
WIRE 1552 3296 1264 3296
WIRE 1712 3296 1712 3120
WIRE 1712 3296 1632 3296
WIRE 1776 3296 1712 3296
WIRE 1856 3296 1856 3248
WIRE 1856 3296 1840 3296
WIRE 1920 3296 1856 3296
WIRE 2032 3296 2032 3120
WIRE 2224 3296 2032 3296
WIRE 2336 3296 2336 3120
WIRE 2336 3296 2304 3296
WIRE 2352 3296 2336 3296
WIRE 2496 3296 2496 3120
WIRE 2608 3296 2496 3296
WIRE 2784 3296 2784 2800
WIRE 2784 3296 2688 3296
WIRE 1264 3312 1264 3296
WIRE 1264 3312 1216 3312
WIRE 2032 3312 2032 3296
WIRE 2032 3312 1984 3312
WIRE 2496 3312 2496 3296
WIRE 2496 3312 2416 3312
WIRE 1152 3328 1120 3328
WIRE 1920 3328 1888 3328
WIRE 2352 3328 2336 3328
WIRE 2336 3408 2336 3328
WIRE 944 3456 944 3376
WIRE 1120 3456 1120 3328
WIRE 1712 3456 1712 3376
WIRE 1888 3456 1888 3328
WIRE 1008 3616 944 3616
WIRE 1088 3616 1072 3616
WIRE 1264 3616 1088 3616
WIRE 1776 3616 1712 3616
WIRE 1856 3616 1840 3616
WIRE 2032 3616 1856 3616
WIRE 2352 3616 2336 3616
WIRE 2496 3616 2432 3616
WIRE 1088 3664 1088 3616
WIRE 1856 3664 1856 3616
WIRE 544 3792 544 3296
WIRE 784 3792 544 3792
WIRE 944 3792 944 3616
WIRE 944 3792 864 3792
WIRE 1008 3792 944 3792
WIRE 1088 3792 1088 3744
WIRE 1088 3792 1072 3792
WIRE 1152 3792 1088 3792
WIRE 1264 3792 1264 3616
WIRE 1552 3792 1264 3792
WIRE 1712 3792 1712 3616
WIRE 1712 3792 1632 3792
WIRE 1776 3792 1712 3792
WIRE 1856 3792 1856 3744
WIRE 1856 3792 1840 3792
WIRE 1920 3792 1856 3792
WIRE 2032 3792 2032 3616
WIRE 2224 3792 2032 3792
WIRE 2336 3792 2336 3616
WIRE 2336 3792 2304 3792
WIRE 2352 3792 2336 3792
WIRE 2496 3792 2496 3616
WIRE 2608 3792 2496 3792
WIRE 2784 3792 2784 3296
WIRE 2784 3792 2688 3792
WIRE 1264 3808 1264 3792
WIRE 1264 3808 1216 3808
WIRE 2032 3808 2032 3792
WIRE 2032 3808 1984 3808
WIRE 2496 3808 2496 3792
WIRE 2496 3808 2416 3808
WIRE 1152 3824 1120 3824
WIRE 1920 3824 1888 3824
WIRE 2352 3824 2336 3824
WIRE 2336 3904 2336 3824
WIRE 944 3952 944 3872
WIRE 1120 3952 1120 3824
WIRE 1712 3952 1712 3872
WIRE 1888 3952 1888 3824
WIRE 1008 4128 944 4128
WIRE 1088 4128 1072 4128
WIRE 1264 4128 1088 4128
WIRE 1776 4128 1712 4128
WIRE 1856 4128 1840 4128
WIRE 2032 4128 1856 4128
WIRE 2352 4128 2336 4128
WIRE 2496 4128 2432 4128
WIRE 1088 4176 1088 4128
WIRE 1856 4176 1856 4128
WIRE 544 4304 544 3792
WIRE 784 4304 544 4304
WIRE 944 4304 944 4128
WIRE 944 4304 864 4304
WIRE 1008 4304 944 4304
WIRE 1088 4304 1088 4256
WIRE 1088 4304 1072 4304
WIRE 1152 4304 1088 4304
WIRE 1264 4304 1264 4128
WIRE 1552 4304 1264 4304
WIRE 1712 4304 1712 4128
WIRE 1712 4304 1632 4304
WIRE 1776 4304 1712 4304
WIRE 1856 4304 1856 4256
WIRE 1856 4304 1840 4304
WIRE 1920 4304 1856 4304
WIRE 2032 4304 2032 4128
WIRE 2224 4304 2032 4304
WIRE 2336 4304 2336 4128
WIRE 2336 4304 2304 4304
WIRE 2352 4304 2336 4304
WIRE 2496 4304 2496 4128
WIRE 2608 4304 2496 4304
WIRE 2784 4304 2784 3792
WIRE 2784 4304 2688 4304
WIRE 1264 4320 1264 4304
WIRE 1264 4320 1216 4320
WIRE 2032 4320 2032 4304
WIRE 2032 4320 1984 4320
WIRE 2496 4320 2496 4304
WIRE 2496 4320 2416 4320
WIRE 1152 4336 1120 4336
WIRE 1920 4336 1888 4336
WIRE 2352 4336 2336 4336
WIRE 2336 4416 2336 4336
WIRE 944 4464 944 4384
WIRE 1120 4464 1120 4336
WIRE 1712 4464 1712 4384
WIRE 1888 4464 1888 4336
WIRE 1008 4608 944 4608
WIRE 1088 4608 1072 4608
WIRE 1264 4608 1088 4608
WIRE 1776 4608 1712 4608
WIRE 1856 4608 1840 4608
WIRE 2032 4608 1856 4608
WIRE 2352 4608 2336 4608
WIRE 2496 4608 2432 4608
WIRE 1088 4656 1088 4608
WIRE 1856 4656 1856 4608
WIRE 544 4784 544 4304
WIRE 784 4784 544 4784
WIRE 944 4784 944 4608
WIRE 944 4784 864 4784
WIRE 1008 4784 944 4784
WIRE 1088 4784 1088 4736
WIRE 1088 4784 1072 4784
WIRE 1152 4784 1088 4784
WIRE 1264 4784 1264 4608
WIRE 1552 4784 1264 4784
WIRE 1712 4784 1712 4608
WIRE 1712 4784 1632 4784
WIRE 1776 4784 1712 4784
WIRE 1856 4784 1856 4736
WIRE 1856 4784 1840 4784
WIRE 1920 4784 1856 4784
WIRE 2032 4784 2032 4608
WIRE 2224 4784 2032 4784
WIRE 2336 4784 2336 4608
WIRE 2336 4784 2304 4784
WIRE 2352 4784 2336 4784
WIRE 2496 4784 2496 4608
WIRE 2608 4784 2496 4784
WIRE 2784 4784 2784 4304
WIRE 2784 4784 2688 4784
WIRE 1264 4800 1264 4784
WIRE 1264 4800 1216 4800
WIRE 2032 4800 2032 4784
WIRE 2032 4800 1984 4800
WIRE 2496 4800 2496 4784
WIRE 2496 4800 2416 4800
WIRE 1152 4816 1120 4816
WIRE 1920 4816 1888 4816
WIRE 2352 4816 2336 4816
WIRE 2336 4896 2336 4816
WIRE 944 4944 944 4864
WIRE 1120 4944 1120 4816
WIRE 1712 4944 1712 4864
WIRE 1888 4944 1888 4816
WIRE 1008 5056 944 5056
WIRE 1088 5056 1072 5056
WIRE 1264 5056 1088 5056
WIRE 1776 5056 1712 5056
WIRE 1856 5056 1840 5056
WIRE 2032 5056 1856 5056
WIRE 2352 5056 2336 5056
WIRE 2496 5056 2432 5056
WIRE 1088 5104 1088 5056
WIRE 1856 5104 1856 5056
WIRE 544 5232 544 4784
WIRE 784 5232 544 5232
WIRE 944 5232 944 5056
WIRE 944 5232 864 5232
WIRE 1008 5232 944 5232
WIRE 1088 5232 1088 5184
WIRE 1088 5232 1072 5232
WIRE 1152 5232 1088 5232
WIRE 1264 5232 1264 5056
WIRE 1552 5232 1264 5232
WIRE 1712 5232 1712 5056
WIRE 1712 5232 1632 5232
WIRE 1776 5232 1712 5232
WIRE 1856 5232 1856 5184
WIRE 1856 5232 1840 5232
WIRE 1920 5232 1856 5232
WIRE 2032 5232 2032 5056
WIRE 2224 5232 2032 5232
WIRE 2336 5232 2336 5056
WIRE 2336 5232 2304 5232
WIRE 2352 5232 2336 5232
WIRE 2496 5232 2496 5056
WIRE 2608 5232 2496 5232
WIRE 2784 5232 2784 4784
WIRE 2784 5232 2688 5232
WIRE 1264 5248 1264 5232
WIRE 1264 5248 1216 5248
WIRE 2032 5248 2032 5232
WIRE 2032 5248 1984 5248
WIRE 2496 5248 2496 5232
WIRE 2496 5248 2416 5248
WIRE 1152 5264 1120 5264
WIRE 1920 5264 1888 5264
WIRE 2352 5264 2336 5264
WIRE 2336 5344 2336 5264
WIRE 944 5392 944 5312
WIRE 1120 5392 1120 5264
WIRE 1712 5392 1712 5312
WIRE 1888 5392 1888 5264
WIRE 1008 5536 944 5536
WIRE 1088 5536 1072 5536
WIRE 1264 5536 1088 5536
WIRE 1776 5536 1712 5536
WIRE 1856 5536 1840 5536
WIRE 2032 5536 1856 5536
WIRE 2352 5536 2336 5536
WIRE 2496 5536 2432 5536
WIRE 1088 5584 1088 5536
WIRE 1856 5584 1856 5536
WIRE 544 5712 544 5232
WIRE 784 5712 544 5712
WIRE 944 5712 944 5536
WIRE 944 5712 864 5712
WIRE 1008 5712 944 5712
WIRE 1088 5712 1088 5664
WIRE 1088 5712 1072 5712
WIRE 1152 5712 1088 5712
WIRE 1264 5712 1264 5536
WIRE 1552 5712 1264 5712
WIRE 1712 5712 1712 5536
WIRE 1712 5712 1632 5712
WIRE 1776 5712 1712 5712
WIRE 1856 5712 1856 5664
WIRE 1856 5712 1840 5712
WIRE 1920 5712 1856 5712
WIRE 2032 5712 2032 5536
WIRE 2224 5712 2032 5712
WIRE 2336 5712 2336 5536
WIRE 2336 5712 2304 5712
WIRE 2352 5712 2336 5712
WIRE 2496 5712 2496 5536
WIRE 2608 5712 2496 5712
WIRE 2784 5712 2784 5232
WIRE 2784 5712 2688 5712
WIRE 1264 5728 1264 5712
WIRE 1264 5728 1216 5728
WIRE 2032 5728 2032 5712
WIRE 2032 5728 1984 5728
WIRE 2496 5728 2496 5712
WIRE 2496 5728 2416 5728
WIRE 1152 5744 1120 5744
WIRE 1920 5744 1888 5744
WIRE 2352 5744 2336 5744
WIRE 2336 5824 2336 5744
WIRE 944 5872 944 5792
WIRE 1120 5872 1120 5744
WIRE 1712 5872 1712 5792
WIRE 1888 5872 1888 5744
WIRE 1008 6064 944 6064
WIRE 1088 6064 1072 6064
WIRE 1264 6064 1088 6064
WIRE 1776 6064 1712 6064
WIRE 1856 6064 1840 6064
WIRE 2032 6064 1856 6064
WIRE 2352 6064 2336 6064
WIRE 2496 6064 2432 6064
WIRE 1088 6112 1088 6064
WIRE 1856 6112 1856 6064
WIRE 544 6240 544 5712
WIRE 784 6240 544 6240
WIRE 944 6240 944 6064
WIRE 944 6240 864 6240
WIRE 1008 6240 944 6240
WIRE 1088 6240 1088 6192
WIRE 1088 6240 1072 6240
WIRE 1152 6240 1088 6240
WIRE 1264 6240 1264 6064
WIRE 1552 6240 1264 6240
WIRE 1712 6240 1712 6064
WIRE 1712 6240 1632 6240
WIRE 1776 6240 1712 6240
WIRE 1856 6240 1856 6192
WIRE 1856 6240 1840 6240
WIRE 1920 6240 1856 6240
WIRE 2032 6240 2032 6064
WIRE 2224 6240 2032 6240
WIRE 2336 6240 2336 6064
WIRE 2336 6240 2304 6240
WIRE 2352 6240 2336 6240
WIRE 2496 6240 2496 6064
WIRE 2608 6240 2496 6240
WIRE 2784 6240 2784 5712
WIRE 2784 6240 2688 6240
WIRE 1264 6256 1264 6240
WIRE 1264 6256 1216 6256
WIRE 2032 6256 2032 6240
WIRE 2032 6256 1984 6256
WIRE 2496 6256 2496 6240
WIRE 2496 6256 2416 6256
WIRE 1152 6272 1120 6272
WIRE 1920 6272 1888 6272
WIRE 2352 6272 2336 6272
WIRE 2336 6352 2336 6272
WIRE 944 6400 944 6320
WIRE 1120 6400 1120 6272
WIRE 1712 6400 1712 6320
WIRE 1888 6400 1888 6272
WIRE 1008 6592 944 6592
WIRE 1088 6592 1072 6592
WIRE 1264 6592 1088 6592
WIRE 1776 6592 1712 6592
WIRE 1856 6592 1840 6592
WIRE 2032 6592 1856 6592
WIRE 2352 6592 2336 6592
WIRE 2496 6592 2432 6592
WIRE 1088 6640 1088 6592
WIRE 1856 6640 1856 6592
WIRE 544 6768 544 6240
WIRE 784 6768 544 6768
WIRE 944 6768 944 6592
WIRE 944 6768 864 6768
WIRE 1008 6768 944 6768
WIRE 1088 6768 1088 6720
WIRE 1088 6768 1072 6768
WIRE 1152 6768 1088 6768
WIRE 1264 6768 1264 6592
WIRE 1552 6768 1264 6768
WIRE 1712 6768 1712 6592
WIRE 1712 6768 1632 6768
WIRE 1776 6768 1712 6768
WIRE 1856 6768 1856 6720
WIRE 1856 6768 1840 6768
WIRE 1920 6768 1856 6768
WIRE 2032 6768 2032 6592
WIRE 2224 6768 2032 6768
WIRE 2336 6768 2336 6592
WIRE 2336 6768 2304 6768
WIRE 2352 6768 2336 6768
WIRE 2496 6768 2496 6592
WIRE 2608 6768 2496 6768
WIRE 2784 6768 2784 6240
WIRE 2784 6768 2688 6768
WIRE 1264 6784 1264 6768
WIRE 1264 6784 1216 6784
WIRE 2032 6784 2032 6768
WIRE 2032 6784 1984 6784
WIRE 2496 6784 2496 6768
WIRE 2496 6784 2416 6784
WIRE 1152 6800 1120 6800
WIRE 1920 6800 1888 6800
WIRE 2352 6800 2336 6800
WIRE 2336 6880 2336 6800
WIRE 944 6928 944 6848
WIRE 1120 6928 1120 6800
WIRE 1712 6928 1712 6848
WIRE 1888 6928 1888 6800
WIRE 1008 7136 944 7136
WIRE 1088 7136 1072 7136
WIRE 1264 7136 1088 7136
WIRE 1776 7136 1712 7136
WIRE 1856 7136 1840 7136
WIRE 2032 7136 1856 7136
WIRE 2352 7136 2336 7136
WIRE 2496 7136 2432 7136
WIRE 1088 7184 1088 7136
WIRE 1856 7184 1856 7136
WIRE 544 7312 544 6768
WIRE 784 7312 544 7312
WIRE 944 7312 944 7136
WIRE 944 7312 864 7312
WIRE 1008 7312 944 7312
WIRE 1088 7312 1088 7264
WIRE 1088 7312 1072 7312
WIRE 1152 7312 1088 7312
WIRE 1264 7312 1264 7136
WIRE 1552 7312 1264 7312
WIRE 1712 7312 1712 7136
WIRE 1712 7312 1632 7312
WIRE 1776 7312 1712 7312
WIRE 1856 7312 1856 7264
WIRE 1856 7312 1840 7312
WIRE 1920 7312 1856 7312
WIRE 2032 7312 2032 7136
WIRE 2224 7312 2032 7312
WIRE 2336 7312 2336 7136
WIRE 2336 7312 2304 7312
WIRE 2352 7312 2336 7312
WIRE 2496 7312 2496 7136
WIRE 2608 7312 2496 7312
WIRE 2784 7312 2784 6768
WIRE 2784 7312 2688 7312
WIRE 1264 7328 1264 7312
WIRE 1264 7328 1216 7328
WIRE 2032 7328 2032 7312
WIRE 2032 7328 1984 7328
WIRE 2496 7328 2496 7312
WIRE 2496 7328 2416 7328
WIRE 1152 7344 1120 7344
WIRE 1920 7344 1888 7344
WIRE 2352 7344 2336 7344
WIRE 2336 7424 2336 7344
WIRE 944 7472 944 7392
WIRE 1120 7472 1120 7344
WIRE 1712 7472 1712 7392
WIRE 1888 7472 1888 7344
WIRE 1008 7616 944 7616
WIRE 1088 7616 1072 7616
WIRE 1264 7616 1088 7616
WIRE 1776 7616 1712 7616
WIRE 1856 7616 1840 7616
WIRE 2032 7616 1856 7616
WIRE 2352 7616 2336 7616
WIRE 2496 7616 2432 7616
WIRE 1088 7664 1088 7616
WIRE 1856 7664 1856 7616
WIRE 544 7792 544 7312
WIRE 784 7792 544 7792
WIRE 944 7792 944 7616
WIRE 944 7792 864 7792
WIRE 1008 7792 944 7792
WIRE 1088 7792 1088 7744
WIRE 1088 7792 1072 7792
WIRE 1152 7792 1088 7792
WIRE 1264 7792 1264 7616
WIRE 1552 7792 1264 7792
WIRE 1712 7792 1712 7616
WIRE 1712 7792 1632 7792
WIRE 1776 7792 1712 7792
WIRE 1856 7792 1856 7744
WIRE 1856 7792 1840 7792
WIRE 1920 7792 1856 7792
WIRE 2032 7792 2032 7616
WIRE 2224 7792 2032 7792
WIRE 2336 7792 2336 7616
WIRE 2336 7792 2304 7792
WIRE 2352 7792 2336 7792
WIRE 2496 7792 2496 7616
WIRE 2608 7792 2496 7792
WIRE 2784 7792 2784 7312
WIRE 2784 7792 2688 7792
WIRE 1264 7808 1264 7792
WIRE 1264 7808 1216 7808
WIRE 2032 7808 2032 7792
WIRE 2032 7808 1984 7808
WIRE 2496 7808 2496 7792
WIRE 2496 7808 2416 7808
WIRE 1152 7824 1120 7824
WIRE 1920 7824 1888 7824
WIRE 2352 7824 2336 7824
WIRE 2336 7904 2336 7824
WIRE 944 7952 944 7872
WIRE 1120 7952 1120 7824
WIRE 1712 7952 1712 7872
WIRE 1888 7952 1888 7824
WIRE 1008 8016 944 8016
WIRE 1088 8016 1072 8016
WIRE 1264 8016 1088 8016
WIRE 1776 8016 1712 8016
WIRE 1856 8016 1840 8016
WIRE 2032 8016 1856 8016
WIRE 2352 8016 2336 8016
WIRE 2496 8016 2432 8016
WIRE 1088 8064 1088 8016
WIRE 1856 8064 1856 8016
WIRE 544 8192 544 7792
WIRE 784 8192 544 8192
WIRE 944 8192 944 8016
WIRE 944 8192 864 8192
WIRE 1008 8192 944 8192
WIRE 1088 8192 1088 8144
WIRE 1088 8192 1072 8192
WIRE 1152 8192 1088 8192
WIRE 1264 8192 1264 8016
WIRE 1552 8192 1264 8192
WIRE 1712 8192 1712 8016
WIRE 1712 8192 1632 8192
WIRE 1776 8192 1712 8192
WIRE 1856 8192 1856 8144
WIRE 1856 8192 1840 8192
WIRE 1920 8192 1856 8192
WIRE 2032 8192 2032 8016
WIRE 2224 8192 2032 8192
WIRE 2336 8192 2336 8016
WIRE 2336 8192 2304 8192
WIRE 2352 8192 2336 8192
WIRE 2496 8192 2496 8016
WIRE 2608 8192 2496 8192
WIRE 2784 8192 2784 7792
WIRE 2784 8192 2688 8192
WIRE 1264 8208 1264 8192
WIRE 1264 8208 1216 8208
WIRE 2032 8208 2032 8192
WIRE 2032 8208 1984 8208
WIRE 2496 8208 2496 8192
WIRE 2496 8208 2416 8208
WIRE 1152 8224 1120 8224
WIRE 1920 8224 1888 8224
WIRE 2352 8224 2336 8224
WIRE 2336 8304 2336 8224
WIRE 944 8352 944 8272
WIRE 1120 8352 1120 8224
WIRE 1712 8352 1712 8272
WIRE 1888 8352 1888 8224
WIRE 1008 8512 944 8512
WIRE 1088 8512 1072 8512
WIRE 1264 8512 1088 8512
WIRE 1776 8512 1712 8512
WIRE 1856 8512 1840 8512
WIRE 2032 8512 1856 8512
WIRE 2352 8512 2336 8512
WIRE 2496 8512 2432 8512
WIRE 1088 8560 1088 8512
WIRE 1856 8560 1856 8512
WIRE 544 8688 544 8192
WIRE 784 8688 544 8688
WIRE 944 8688 944 8512
WIRE 944 8688 864 8688
WIRE 1008 8688 944 8688
WIRE 1088 8688 1088 8640
WIRE 1088 8688 1072 8688
WIRE 1152 8688 1088 8688
WIRE 1264 8688 1264 8512
WIRE 1552 8688 1264 8688
WIRE 1712 8688 1712 8512
WIRE 1712 8688 1632 8688
WIRE 1776 8688 1712 8688
WIRE 1856 8688 1856 8640
WIRE 1856 8688 1840 8688
WIRE 1920 8688 1856 8688
WIRE 2032 8688 2032 8512
WIRE 2224 8688 2032 8688
WIRE 2336 8688 2336 8512
WIRE 2336 8688 2304 8688
WIRE 2352 8688 2336 8688
WIRE 2496 8688 2496 8512
WIRE 2608 8688 2496 8688
WIRE 2784 8688 2784 8192
WIRE 2784 8688 2688 8688
WIRE 1264 8704 1264 8688
WIRE 1264 8704 1216 8704
WIRE 2032 8704 2032 8688
WIRE 2032 8704 1984 8704
WIRE 2496 8704 2496 8688
WIRE 2496 8704 2416 8704
WIRE 1152 8720 1120 8720
WIRE 1920 8720 1888 8720
WIRE 2352 8720 2336 8720
WIRE 2336 8800 2336 8720
WIRE 944 8848 944 8768
WIRE 1120 8848 1120 8720
WIRE 1712 8848 1712 8768
WIRE 1888 8848 1888 8720
WIRE 1008 8992 944 8992
WIRE 1088 8992 1072 8992
WIRE 1264 8992 1088 8992
WIRE 1776 8992 1712 8992
WIRE 1856 8992 1840 8992
WIRE 2032 8992 1856 8992
WIRE 2352 8992 2336 8992
WIRE 2496 8992 2432 8992
WIRE 1088 9040 1088 8992
WIRE 1856 9040 1856 8992
WIRE 544 9168 544 8688
WIRE 784 9168 544 9168
WIRE 944 9168 944 8992
WIRE 944 9168 864 9168
WIRE 1008 9168 944 9168
WIRE 1088 9168 1088 9120
WIRE 1088 9168 1072 9168
WIRE 1152 9168 1088 9168
WIRE 1264 9168 1264 8992
WIRE 1552 9168 1264 9168
WIRE 1712 9168 1712 8992
WIRE 1712 9168 1632 9168
WIRE 1776 9168 1712 9168
WIRE 1856 9168 1856 9120
WIRE 1856 9168 1840 9168
WIRE 1920 9168 1856 9168
WIRE 2032 9168 2032 8992
WIRE 2224 9168 2032 9168
WIRE 2336 9168 2336 8992
WIRE 2336 9168 2304 9168
WIRE 2352 9168 2336 9168
WIRE 2496 9168 2496 8992
WIRE 2608 9168 2496 9168
WIRE 2784 9168 2784 8688
WIRE 2784 9168 2688 9168
WIRE 1264 9184 1264 9168
WIRE 1264 9184 1216 9184
WIRE 2032 9184 2032 9168
WIRE 2032 9184 1984 9184
WIRE 2496 9184 2496 9168
WIRE 2496 9184 2416 9184
WIRE 1152 9200 1120 9200
WIRE 1920 9200 1888 9200
WIRE 2352 9200 2336 9200
WIRE 2336 9280 2336 9200
WIRE 944 9328 944 9248
WIRE 1120 9328 1120 9200
WIRE 1712 9328 1712 9248
WIRE 1888 9328 1888 9200
WIRE 1008 9456 944 9456
WIRE 1088 9456 1072 9456
WIRE 1264 9456 1088 9456
WIRE 1776 9456 1712 9456
WIRE 1856 9456 1840 9456
WIRE 2032 9456 1856 9456
WIRE 2352 9456 2336 9456
WIRE 2496 9456 2432 9456
WIRE 1088 9504 1088 9456
WIRE 1856 9504 1856 9456
WIRE 544 9632 544 9168
WIRE 784 9632 544 9632
WIRE 944 9632 944 9456
WIRE 944 9632 864 9632
WIRE 1008 9632 944 9632
WIRE 1088 9632 1088 9584
WIRE 1088 9632 1072 9632
WIRE 1152 9632 1088 9632
WIRE 1264 9632 1264 9456
WIRE 1552 9632 1264 9632
WIRE 1712 9632 1712 9456
WIRE 1712 9632 1632 9632
WIRE 1776 9632 1712 9632
WIRE 1856 9632 1856 9584
WIRE 1856 9632 1840 9632
WIRE 1920 9632 1856 9632
WIRE 2032 9632 2032 9456
WIRE 2224 9632 2032 9632
WIRE 2336 9632 2336 9456
WIRE 2336 9632 2304 9632
WIRE 2352 9632 2336 9632
WIRE 2496 9632 2496 9456
WIRE 2608 9632 2496 9632
WIRE 2784 9632 2784 9168
WIRE 2784 9632 2688 9632
WIRE 1264 9648 1264 9632
WIRE 1264 9648 1216 9648
WIRE 2032 9648 2032 9632
WIRE 2032 9648 1984 9648
WIRE 2496 9648 2496 9632
WIRE 2496 9648 2416 9648
WIRE 1152 9664 1120 9664
WIRE 1920 9664 1888 9664
WIRE 2352 9664 2336 9664
WIRE 2336 9744 2336 9664
WIRE 944 9792 944 9712
WIRE 1120 9792 1120 9664
WIRE 1712 9792 1712 9712
WIRE 1888 9792 1888 9664
WIRE 544 9984 544 9632
WIRE 2784 9984 2784 9632
FLAG 96 144 0
FLAG -48 224 -pwr
FLAG -48 32 +pwr
FLAG 4160 624 out
FLAG 944 656 0
FLAG 1120 656 0
FLAG 1184 480 +pwr
FLAG 1184 544 -pwr
FLAG 1712 656 0
FLAG 1888 656 0
FLAG 1952 480 +pwr
FLAG 1952 544 -pwr
FLAG 2384 480 +pwr
FLAG 2384 544 -pwr
FLAG 2336 608 0
FLAG 2944 704 +pwr
FLAG 2944 768 -pwr
FLAG 2896 832 0
FLAG 944 1136 0
FLAG 1120 1136 0
FLAG 1184 960 +pwr
FLAG 1184 1024 -pwr
FLAG 1712 1136 0
FLAG 1888 1136 0
FLAG 1952 960 +pwr
FLAG 1952 1024 -pwr
FLAG 2384 960 +pwr
FLAG 2384 1024 -pwr
FLAG 2336 1088 0
FLAG 944 1600 0
FLAG 1120 1600 0
FLAG 1184 1424 +pwr
FLAG 1184 1488 -pwr
FLAG 1712 1600 0
FLAG 1888 1600 0
FLAG 1952 1424 +pwr
FLAG 1952 1488 -pwr
FLAG 2384 1424 +pwr
FLAG 2384 1488 -pwr
FLAG 2336 1552 0
FLAG 944 2048 0
FLAG 1120 2048 0
FLAG 1184 1872 +pwr
FLAG 1184 1936 -pwr
FLAG 1712 2048 0
FLAG 1888 2048 0
FLAG 1952 1872 +pwr
FLAG 1952 1936 -pwr
FLAG 2384 1872 +pwr
FLAG 2384 1936 -pwr
FLAG 2336 2000 0
FLAG 944 2448 0
FLAG 1120 2448 0
FLAG 1184 2272 +pwr
FLAG 1184 2336 -pwr
FLAG 1712 2448 0
FLAG 1888 2448 0
FLAG 1952 2272 +pwr
FLAG 1952 2336 -pwr
FLAG 2384 2272 +pwr
FLAG 2384 2336 -pwr
FLAG 2336 2400 0
FLAG 944 2960 0
FLAG 1120 2960 0
FLAG 1184 2784 +pwr
FLAG 1184 2848 -pwr
FLAG 1712 2960 0
FLAG 1888 2960 0
FLAG 1952 2784 +pwr
FLAG 1952 2848 -pwr
FLAG 2384 2784 +pwr
FLAG 2384 2848 -pwr
FLAG 2336 2912 0
FLAG 944 3456 0
FLAG 1120 3456 0
FLAG 1184 3280 +pwr
FLAG 1184 3344 -pwr
FLAG 1712 3456 0
FLAG 1888 3456 0
FLAG 1952 3280 +pwr
FLAG 1952 3344 -pwr
FLAG 2384 3280 +pwr
FLAG 2384 3344 -pwr
FLAG 2336 3408 0
FLAG 944 3952 0
FLAG 1120 3952 0
FLAG 1184 3776 +pwr
FLAG 1184 3840 -pwr
FLAG 1712 3952 0
FLAG 1888 3952 0
FLAG 1952 3776 +pwr
FLAG 1952 3840 -pwr
FLAG 2384 3776 +pwr
FLAG 2384 3840 -pwr
FLAG 2336 3904 0
FLAG 944 4464 0
FLAG 1120 4464 0
FLAG 1184 4288 +pwr
FLAG 1184 4352 -pwr
FLAG 1712 4464 0
FLAG 1888 4464 0
FLAG 1952 4288 +pwr
FLAG 1952 4352 -pwr
FLAG 2384 4288 +pwr
FLAG 2384 4352 -pwr
FLAG 2336 4416 0
FLAG 944 4944 0
FLAG 1120 4944 0
FLAG 1184 4768 +pwr
FLAG 1184 4832 -pwr
FLAG 1712 4944 0
FLAG 1888 4944 0
FLAG 1952 4768 +pwr
FLAG 1952 4832 -pwr
FLAG 2384 4768 +pwr
FLAG 2384 4832 -pwr
FLAG 2336 4896 0
FLAG 944 5392 0
FLAG 1120 5392 0
FLAG 1184 5216 +pwr
FLAG 1184 5280 -pwr
FLAG 1712 5392 0
FLAG 1888 5392 0
FLAG 1952 5216 +pwr
FLAG 1952 5280 -pwr
FLAG 2384 5216 +pwr
FLAG 2384 5280 -pwr
FLAG 2336 5344 0
FLAG 944 5872 0
FLAG 1120 5872 0
FLAG 1184 5696 +pwr
FLAG 1184 5760 -pwr
FLAG 1712 5872 0
FLAG 1888 5872 0
FLAG 1952 5696 +pwr
FLAG 1952 5760 -pwr
FLAG 2384 5696 +pwr
FLAG 2384 5760 -pwr
FLAG 2336 5824 0
FLAG 944 8848 0
FLAG 1120 8848 0
FLAG 1184 8672 +pwr
FLAG 1184 8736 -pwr
FLAG 1712 8848 0
FLAG 1888 8848 0
FLAG 1952 8672 +pwr
FLAG 1952 8736 -pwr
FLAG 2384 8672 +pwr
FLAG 2384 8736 -pwr
FLAG 2336 8800 0
FLAG 944 9328 0
FLAG 1120 9328 0
FLAG 1184 9152 +pwr
FLAG 1184 9216 -pwr
FLAG 1712 9328 0
FLAG 1888 9328 0
FLAG 1952 9152 +pwr
FLAG 1952 9216 -pwr
FLAG 2384 9152 +pwr
FLAG 2384 9216 -pwr
FLAG 2336 9280 0
FLAG 944 6400 0
FLAG 1120 6400 0
FLAG 1184 6224 +pwr
FLAG 1184 6288 -pwr
FLAG 1712 6400 0
FLAG 1888 6400 0
FLAG 1952 6224 +pwr
FLAG 1952 6288 -pwr
FLAG 2384 6224 +pwr
FLAG 2384 6288 -pwr
FLAG 2336 6352 0
FLAG 944 6928 0
FLAG 1120 6928 0
FLAG 1184 6752 +pwr
FLAG 1184 6816 -pwr
FLAG 1712 6928 0
FLAG 1888 6928 0
FLAG 1952 6752 +pwr
FLAG 1952 6816 -pwr
FLAG 2384 6752 +pwr
FLAG 2384 6816 -pwr
FLAG 2336 6880 0
FLAG 944 7472 0
FLAG 1120 7472 0
FLAG 1184 7296 +pwr
FLAG 1184 7360 -pwr
FLAG 1712 7472 0
FLAG 1888 7472 0
FLAG 1952 7296 +pwr
FLAG 1952 7360 -pwr
FLAG 2384 7296 +pwr
FLAG 2384 7360 -pwr
FLAG 2336 7424 0
FLAG 944 7952 0
FLAG 1120 7952 0
FLAG 1184 7776 +pwr
FLAG 1184 7840 -pwr
FLAG 1712 7952 0
FLAG 1888 7952 0
FLAG 1952 7776 +pwr
FLAG 1952 7840 -pwr
FLAG 2384 7776 +pwr
FLAG 2384 7840 -pwr
FLAG 2336 7904 0
FLAG 944 8352 0
FLAG 1120 8352 0
FLAG 1184 8176 +pwr
FLAG 1184 8240 -pwr
FLAG 1712 8352 0
FLAG 1888 8352 0
FLAG 1952 8176 +pwr
FLAG 1952 8240 -pwr
FLAG 2384 8176 +pwr
FLAG 2384 8240 -pwr
FLAG 2336 8304 0
FLAG 944 9792 0
FLAG 1120 9792 0
FLAG 1184 9616 +pwr
FLAG 1184 9680 -pwr
FLAG 1712 9792 0
FLAG 1888 9792 0
FLAG 1952 9616 +pwr
FLAG 1952 9680 -pwr
FLAG 2384 9616 +pwr
FLAG 2384 9680 -pwr
FLAG 2336 9744 0
FLAG -768 416 +pwr
FLAG -768 480 -pwr
FLAG -352 640 +pwr
FLAG -352 704 -pwr
FLAG -848 624 0
FLAG -752 864 +pwr
FLAG -752 928 -pwr
FLAG -832 1072 0
FLAG -416 720 0
SYMBOL voltage -48 16 R0
WINDOW 123 0 0 Left 2
WINDOW 39 0 0 Left 2
SYMATTR InstName V1
SYMATTR Value 2.5
SYMBOL voltage -48 128 R0